Version 4
SHEET 1 1540 1608
WIRE 752 128 -976 128
WIRE 752 336 752 128
WIRE -976 384 -976 128
WIRE -736 384 -976 384
WIRE -656 384 -736 384
WIRE -208 384 -656 384
WIRE -96 384 -208 384
WIRE -32 384 -96 384
WIRE 224 384 32 384
WIRE 272 384 224 384
WIRE 576 384 528 384
WIRE 688 384 576 384
WIRE -96 432 -96 384
WIRE 752 464 752 432
WIRE 976 464 752 464
WIRE -736 480 -736 384
WIRE 224 480 224 384
WIRE 576 480 576 384
WIRE 752 496 752 464
WIRE -656 512 -656 384
WIRE -608 512 -656 512
WIRE -592 512 -608 512
WIRE -352 512 -368 512
WIRE -304 512 -352 512
WIRE -96 544 -96 512
WIRE -736 576 -736 560
WIRE -608 576 -736 576
WIRE -592 576 -608 576
WIRE -352 576 -368 576
WIRE -336 576 -352 576
WIRE -976 592 -976 384
WIRE -736 608 -736 576
WIRE -608 640 -656 640
WIRE -592 640 -608 640
WIRE -352 640 -368 640
WIRE -96 640 -96 608
WIRE -96 640 -352 640
WIRE 224 640 224 544
WIRE 224 640 -96 640
WIRE 400 640 400 480
WIRE 400 640 224 640
WIRE 576 640 576 544
WIRE 576 640 400 640
WIRE 752 640 752 576
WIRE 752 640 576 640
WIRE 864 640 752 640
WIRE -608 704 -624 704
WIRE -592 704 -608 704
WIRE -352 704 -368 704
WIRE -208 704 -208 384
WIRE -208 704 -352 704
WIRE -736 720 -736 688
WIRE -656 720 -656 640
WIRE -656 720 -736 720
WIRE -656 768 -656 720
WIRE -336 768 -336 576
WIRE -336 768 -656 768
WIRE -976 816 -976 672
WIRE -736 816 -736 784
WIRE -736 816 -976 816
WIRE -304 816 -304 512
WIRE -304 816 -736 816
WIRE -976 880 -976 816
FLAG -976 880 0
FLAG -352 512 1
FLAG -352 576 2
FLAG -352 640 3
FLAG -352 704 4
FLAG -608 704 5
FLAG -608 640 6
FLAG -608 576 7
FLAG -608 512 8
FLAG 976 464 TPAINout
SYMBOL Misc\\NE555 -480 608 M0
SYMATTR InstName U1
SYMBOL voltage -976 576 M0
WINDOW 123 0 0 Left 0
WINDOW 39 24 132 Left 0
WINDOW 0 0 130 Left 0
SYMATTR InstName BATTERY
SYMATTR Value 9V
SYMBOL res -720 592 M0
SYMATTR InstName R2
SYMATTR Value 2.5k
SYMBOL cap -720 720 M0
SYMATTR InstName C1
SYMATTR Value 141µ
SYMBOL res -720 464 M0
SYMATTR InstName R1
SYMATTR Value 23k
SYMBOL LED -80 544 M0
SYMATTR InstName D1
SYMBOL res -80 416 M0
SYMATTR InstName R3
SYMATTR Value 4.7k
SYMBOL Regulators\\7805 400 384 R0
SYMATTR InstName U2
SYMBOL diode -32 400 R270
WINDOW 0 32 32 VTop 0
WINDOW 3 0 32 VBottom 0
SYMATTR InstName D2
SYMBOL cap 240 480 M0
SYMATTR InstName C2
SYMATTR Value 0.2µ
SYMBOL cap 560 480 R0
SYMATTR InstName C3
SYMATTR Value 0.1µ
SYMBOL res 768 480 M0
SYMATTR InstName R5
SYMATTR Value 10k
SYMBOL npn 688 336 R0
SYMATTR InstName Q1
TEXT -928 856 Left 0 !.tran 0 30 20
TEXT 288 344 Left 0 ;+5VoltageRegulator
TEXT -512 608 Left 0 ;Timer
TEXT -16 544 Center 0 ;Pulse\nIndicator\nLED
TEXT 40 728 Center 0 ;Timing Pulser Anklebot InvestigatioN\n(aka TPAIN)
