Version 4
SHEET 1 916 1608
WIRE -736 384 -976 384
WIRE -736 480 -736 384
WIRE -976 592 -976 384
WIRE -736 592 -736 560
WIRE -560 592 -736 592
WIRE -736 608 -736 592
WIRE -976 816 -976 672
WIRE -736 816 -736 688
WIRE -736 816 -976 816
WIRE -560 816 -736 816
WIRE -976 880 -976 816
FLAG -976 880 0
FLAG -560 592 Vout
SYMBOL voltage -976 576 M0
WINDOW 123 0 0 Left 0
WINDOW 39 24 132 Left 0
WINDOW 0 0 130 Left 0
SYMATTR InstName SOURCE
SYMATTR Value PULSE(0 9 0.01 0.001 0.001 0.05 1.1 8)
SYMBOL res -720 592 M0
SYMATTR InstName R2
SYMATTR Value 5k
SYMBOL res -720 464 M0
SYMATTR InstName R1
SYMATTR Value 4k
TEXT -928 856 Left 0 !.tran 0 11 0
